23

C         -2.53797       -1.54068       -0.39133
O         -1.77462       -0.37406       -0.56803
C         -1.91994        0.53647        0.49470
C         -0.96413        1.69415        0.31873
O          0.38273        1.31343        0.48761
C          1.07121        1.01133       -0.71229
C          2.36388        0.28737       -0.39302
O          2.24191       -1.10831       -0.24271
C          1.47358       -1.52143        0.86447
H         -2.23685       -2.07827        0.51654
H         -3.60825       -1.31046       -0.32086
H         -2.36738       -2.18036       -1.25563
H         -1.70946        0.03809        1.45126
H         -2.95009        0.91946        0.53416
H         -1.11713        2.16206       -0.66050
H         -1.18957        2.44012        1.08470
H          1.30295        1.94327       -1.24516
H          0.45764        0.38386       -1.36508
H          3.05866        0.43064       -1.22179
H          2.80798        0.73323        0.50797
H          1.61031       -2.59808        0.96281
H          1.81045       -1.03120        1.78569
H          0.41092       -1.30408        0.72345
